/*---------------------------------------------------------------------------
     AdditiveFOAM template input file (compatible with 1.0, OpenFOAM 10)

                      Created for simulation with Myna
  ---------------------------------------------------------------------------*/

FoamFile
{
    format      binary;
    class       volScalarField;
    location    "0";
    object      T;
}
// * * * * * * * * * * * * * * * * * * * * * * * * * * * * * * * * * * * * * //

dimensions      [0 0 0 1 0 0 0];

internalField   uniform 300;

boundaryField
{
    bottom
    {
        type            mixedTemperature;
        h               500.0;
        emissivity      0.4;
        Tinf            uniform 300;
        value           uniform 300;
    }
    top
    {
        type            mixedTemperature;
        h               25.0;
        emissivity      0.4;
        Tinf            uniform 300;
        value           uniform 300;
    }
    sides
    {
        type            zeroGradient;
        value           uniform 300;
    }
}


// ************************************************************************* //
