/*---------------------------------------------------------------------------
     OpenFOAM template input file (compatible with OpenFOAM 10)

                      Created for simulation with Myna
  ---------------------------------------------------------------------------*/

FoamFile
{
    version         2;
    format          ascii;
    class           dictionary;
    object          blockMeshDict;
}
// * * * * * * * * * * * * * * * * * * * * * * * * * * * * * * * * * * * * * //

xmin            0;
ymin            0;
zmin            0;

xmax            1;
ymax            1;
zmax            1;

nx              1;
ny              1;
nz              1;

vertices
(
    ( $xmin $ymin $zmin )
    ( $xmax $ymin $zmin )
    ( $xmax $ymax $zmin )
    ( $xmin $ymax $zmin )
    ( $xmin $ymin $zmax )
    ( $xmax $ymin $zmax )
    ( $xmax $ymax $zmax )
    ( $xmin $ymax $zmax )
);

blocks
(
    hex ( 0 1 2 3 4 5 6 7 ) ( $nx $ny $nz ) simpleGrading ( 1 1 1 )
);

edges( );

boundary
(
    part
    {
        type wall;
        faces
        (
            ( 0 3 2 1 )
            ( 4 5 6 7 )
            ( 0 4 7 3 )
            ( 2 6 5 1 )
            ( 1 5 4 0 )
            ( 3 7 6 2 )
        );
    }
);

mergePatchPairs ( );

// ************************************************************************* //
