/*---------------------------------------------------------------------------
     OpenFOAM template input file (compatible with OpenFOAM 10)

                      Created for simulation with Myna
  ---------------------------------------------------------------------------*/

FoamFile
{
    version     2.0;
    format      ascii;
    class       dictionary;
    location    "system";
    object      topoSetDict;
}
// * * * * * * * * * * * * * * * * * * * * * * * * * * * * * * * * * * * * * //

xmin            0;
ymin            0;
zmin            0;

xmax            0;
ymax            0;
zmax            0;

actions
(
    // cellSet used to remove cells above desired build plane
    {
        name    c0;
        type    cellSet;
        action  new;
        source  boxToCell;
        sourceInfo
        {
            box ($xmin $ymin $zmin) ($xmax $ymax $zmax);
        }
    }
);

// ************************************************************************* //
