/*---------------------------------------------------------------------------
     AdditiveFOAM template input file (compatible with 1.0, OpenFOAM 10)

                      Created for simulation with Myna
  ---------------------------------------------------------------------------*/

FoamFile
{
    version         2;
    format          ascii;
    class           dictionary;
    object          heatSourceProperties;
}
// * * * * * * * * * * * * * * * * * * * * * * * * * * * * * * * * * * * * * //

sources         ( beam );

beam
{
    pathName        scanpath.txt;
    absorptionModel constant;
    constantCoeffs
    {
        eta            0.3;
    }
    heatSourceModel Gaussian;
    GaussianCoeffs
    {
        dimensions      ( 6.5e-05 6.5e-05 3e-05 );
       nPoints          ( 2 2 2 );
    }
}


// ************************************************************************* //
