/*---------------------------------------------------------------------------
     AdditiveFOAM template input file (compatible with 1.0, OpenFOAM 10)

                      Created for simulation with Myna
  ---------------------------------------------------------------------------*/

FoamFile
{
    version     2.0;
    format      ascii;
    class       dictionary;
    object      transportProperties;
}

// * * * * * * * * * * * * * * * * * * * * * * * * * * * * * * * * * * * * * //

solid
{
    kappa   (4.957  0.01571   0.0);
    Cp      (770.4    0.0       0.0);
}

powder
{
    kappa   (0.4957  0.001571   0.0);
    Cp      (42.3  0.01329       0.0);
}

rho     [1 -3 0 0 0 0 0]    7955.0;

// ************************************************************************* //
