/*---------------------------------------------------------------------------
     AdditiveFOAM template input file (compatible with 1.0, OpenFOAM 10)

                      Created for simulation with Myna
  ---------------------------------------------------------------------------*/

FoamFile
{
    version         2;
    format          ascii;
    class           dictionary;
    object          blockMeshDict;
}
// * * * * * * * * * * * * * * * * * * * * * * * * * * * * * * * * * * * * * //

xmin            0.16503199000000002;
ymin            0.06701219;
zmin            -1.55476e-05;

xmax            0.17983100999999999;
ymax            0.08132541;
zmax            0.016320510000000003;

nx              92;
ny              89;
nz              102;

vertices
(
    ( $xmin $ymin $zmin )
    ( $xmax $ymin $zmin )
    ( $xmax $ymax $zmin )
    ( $xmin $ymax $zmin )
    ( $xmin $ymin $zmax ) 
    ( $xmax $ymin $zmax )
    ( $xmax $ymax $zmax ) 
    ( $xmin $ymax $zmax ) 
);

blocks
(
    hex ( 0 1 2 3 4 5 6 7 ) ( $nx $ny $nz ) simpleGrading ( 1 1 1 )
);

edges( );

boundary
(
    part
    {
        type wall;
        faces
        (
            ( 0 3 2 1 ) 
            ( 4 5 6 7 )
            ( 0 4 7 3 )
            ( 2 6 5 1 )
            ( 1 5 4 0 )
            ( 3 7 6 2 )
        ); 
    }
);

mergePatchPairs ( );

// ************************************************************************* //
