/*---------------------------------------------------------------------------
     AdditiveFOAM template input file (compatible with 1.0, OpenFOAM 10)

                      Created for simulation with Myna
  ---------------------------------------------------------------------------*/

FoamFile
{
    version         2;
    format          ascii;
    class           dictionary;
    object          snappyHexMeshDict;
}
// * * * * * * * * * * * * * * * * * * * * * * * * * * * * * * * * * * * * * //

#includeEtc     "caseDicts/mesh/generation/snappyHexMeshDict.cfg"

castellatedMesh true;

snap            false;

addLayers       false;

geometry
{
    refinementBox
    {
        type            searchableBox;
        min             ( 0.172 0.072 -0.0003 );
        max             ( 0.173 0.073 0 );
    }
}

castellatedMeshControls
{
    features        ( );
    refinementSurfaces
    {
    }
    refinementRegions
    {
        refinementBox
        {
            mode            inside;
            levels          ( ( 4 4 ) );
        }
    }
    nCellsBetweenLevels 5;
    locationInMesh  ( 0.1725 0.0725 -0.00015 );
}

snapControls
{
}

addLayersControls
{
    layers
    {
    }
    relativeSizes   true;
    expansionRatio  1.2;
    finalLayerThickness 0.5;
    minThickness    0.001;
}

mergeTolerance  1e-08;


// ************************************************************************* //
