/*---------------------------------------------------------------------------
     AdditiveFOAM template input file (compatible with 1.0, OpenFOAM 10)

                      Created for simulation with Myna
  ---------------------------------------------------------------------------*/

  FoamFile
{
    version         2;
    format          ascii;
    class           dictionary;
    location        "system";
    object          mapFieldsDict;
}
// * * * * * * * * * * * * * * * * * * * * * * * * * * * * * * * * * * * * * //

patchMap        ();
cuttingPatches  ( bottom top sides );

// ************************************************************************* //
